TITLE Example 1
'-----------------------------------------------------------------------------'
CHEMICAL_SYSTEM 1
	'sist_quim_1.dat'
'-----------------------------------------------------------------------------'
SOLUTION 1
	temp			25.0
	pressure		1.0
	pH			7.0
	pe			4.0
	density			1.0
		Ca+2		2.0e-01
		
	'*'			0.0
'-----------------------------------------------------------------------------'
EQUILIBRIUM_PHASES 1
	Gypsum			0.0		1.0
	'*'			0.0		0.0
'-----------------------------------------------------------------------------'
'end'






